:READ  TXT360IN ASSEMBLE C1 WORK    3/26/19  22:00
         MACRO                                                          00000100
&NAME    CALL  &CS                                                      00000200
&NAME    L     15,=V(&CS)                                               00000300
         BALR  14,15                                                    00000400
         MEND                                                           00000500
         PRINT NOGEN                                                    00000600
TXT360IN ENTER                                                          00000700
         LA    R12,TRTDELIM        WORK AREAS WHICH WOULD               00000800
         USING TRTDELIM,R12        BE GETMAINED FOR REENTRANCY          00000900
         MVI   RETCODE+3,0       CLEAR OUT RETURN CODE                  00001000
         EXTRN SWAP       TO SAVE SOME SPACE                            00001100
         EXTRN TOPNODE,HYPRTEXT,BLKSIZE,TCBMSS                          00001200
         ENTRY CARD                                                     00001300
R0       EQU   0                                                        00001400
R1       EQU   1                                                        00001500
R2       EQU   2                                                        00001600
R3       EQU   3                                                        00001700
R4       EQU   4                                                        00001800
R5       EQU   5                                                        00001900
R6       EQU   6                                                        00002000
R7       EQU   7                                                        00002100
R8       EQU   8                                                        00002200
R9       EQU   9                                                        00002300
R10      EQU   10                                                       00002400
R11      EQU   11                                                       00002500
R12      EQU   12                                                       00002600
R13      EQU   13                                                       00002700
R14      EQU   14                                                       00002800
R15      EQU   15                                                       00002900
         LA    R11,INAREA+160      ADDRESS OF NEXT SCANABLE CHARACTER   00003000
         L     R2,0(R1)            POINT AT LENGTH & LABEL PARM         00003100
         LH    R1,0(R2)            GET LABEL LENGTH                     00003200
         BCTR  R1,0                DECREMENT FOR EX                     00003300
         LTR   R1,R1               IF NO PARM,                          00003400
         BL    OPEN                NO INITIAL LABEL FROM THIS SOURCE    00003500
         CLI   2(R2),C'¢'                                               00003600
         BNE   INITLB                                                   00003700
         MVI   TRTDELIM+C'¢',X'0C'                                      00003800
         B     OPEN                                                     00003900
INITLB   SH    R11,=H'7'           TO START SCAN AT LABEL               00004000
         EX    R1,MOVELBL          EXTRACT LABEL TO FIELD 'LABEL'       00004100
OPEN     OPEN  (HYPRTEXT,(INOUT),CARD,(INPUT)) OPEN DCBS                00004200
         L     R1,16               *                                    00004300
         L     R1,0(R1)            *                                    00004400
         L     R1,4(R1)            *                                    00004500
         L     R0,24(R1)           * SET UP TCBMSS                      00004600
         L     R1,=A(TCBMSS)       * TO POINT TO BOUNDARY BOX           00004700
         ST    R0,0(R1)            *                                    00004800
         L     R1,=A(BLKSIZE)      PUT LENGTH OF BLOCK                  00004900
         LH    R1,0(R1)            IN R1                                00005000
         S     R1,=F'1000'         LEAVE ROOM FOR EDIT EXPANSIONS       00005100
         ST    R1,PAGESIZE         AND RECORD PAGESIZE                  00005200
         SH    R1,=H'20'           INITIAL ORDERS PAGE SIZE             00005300
         STH   R1,INCR             AMOUNT TO BE ADDED TO ORDERS PAGE    00005400
         SH    R1,=H'70'           INITIAL DATA PAGE SIZE = 90          00005500
         STH   R1,INCR+2           INCREMENT TO DATA PAGE SIZE          00005600
* READ IN TOPNODE AND AVS                                               00005700
         READ  NODEIN,SF,HYPRTEXT,TOPNODE                               00005800
         CHECK NODEIN                                                   00005900
* MOVE AVS INFO INTO TABLE                                              00006000
         L     R1,=A(TOPNODE)      WHERE TO MOVE FROM                   00006100
         L     R3,=V(NXTHOLE)                                           00006200
         MVC   0(256,R3),900(R1)                                        00006300
         MVC   256(256,R3),1156(R1)                                     00006400
         MVC   512(256,R3),1412(R1)                                     00006500
         MVC   768(40,R3),1668(R1)                                      00006600
* SEE IF SYSTEM IS EMPTY                                                00006700
         MVI   BLOCK+4,X'40'       OP FOR RETRIEVE (PAGE 0)             00006800
         LA    R1,BLOCK            CALL CONV FOR PARAM LIST             00006900
         CALL  MAINTAIN            TRY TO RETRIEVE                      00007000
         LTR   R15,R15             CHECK RETURN CODE                    00007100
         BE    NOTEMPTY            ADDING TO OLD FILE                   00007200
* CREATE LABEL TABLE AND VERSION FILE                                   00007300
         MVI   BLOCK+4,X'80'       OP FOR CREATE                        00007400
         MVI   BLOCK+7,8           NEED A LENGTH AND A COUNT FIELD      00007500
         CALL  MAINTAIN                                                 00007600
         L     R2,=V(VFADD)        FIND WHERE TO STORE ADDR OF VF       00007700
         L     R3,BLOCK+8          PICK UP ADDR OF NEW VF               00007800
         ST    R3,0(R2)            AND GIVE TO SERVICE ROUTINES         00007900
         XC    0(8,R3),0(R3)       ZERO LENGTH AND COUNT FIELDS         00008000
         MVI   3(R3),4             LENGTH (NOT INCLUDING COUNT FLD) = 4 00008100
         OI    BLOCK+3,1           PREPARE TO CREATE PAGE 1             00008200
         CALL  MAINTAIN                                                 00008300
         L     R2,=V(LABTABAD)     FIND WHERE TO STORE ADDR OF LABTABLE 00008400
         L     R3,BLOCK+8          PICK UP ADDR OF NEW LABTAB           00008500
         ST    R3,0(R2)            AND GIVE TO SERVICE ROUTINES         00008600
         MVC   0(4,R3),=X'00000004' LENGTH = 4                          00008700
         LA    R1,2                COUNTER STARTS AT 2                  00008800
         B     ENTLAB              BEGIN BY ENTERING LABEL IN TABLE     00008900
NOTEMPTY L     R1,BLOCK+8          ADDRESS OF VF                        00009000
         L     R3,=V(VFADD)                                             00009100
         ST    R1,0(R3)            GIVE ADDR OF VF TO SERVICE ROUTINES  00009200
         A     R1,0(R1)            POINT R1 AT COUNTER                  00009300
         L     R1,0(R1)            R1 CONTAINS COUNTER                  00009400
ENTLAB   L     R3,=V(COUNTER)                                           00009500
         ST    R1,0(R3)            GIVE COUNTER TO SERVICE ROUTINES     00009600
         MVI   BLOCK+4,0           CLEAR TOP BYTE OF PAGE NAME FIELD    00009700
         B     SCANRTN             START SCAN                           00009800
         EJECT                                                          00009900
CLEANUP  MVI   SWITCH,X'02'        FOR EXIT AFTER WRAP UP               00010000
ORDERS   TM    SWITCH,X'06'        CREATE NEW AND/OR WRAP UP OLD PAGES  00010100
         BO    NEWPAIR             ONLY CREATE NEW PAGES                00010200
         BM    NEWPAGES            AT LEAST WRAP UP OLD PAGES           00010300
         BCTR  R5,0                *                                    00010400
         SR    R5,R8               AMOUNT OF ROOM LEFT AFTER NEW ORDER  00010500
         BNL   ORDERM              IF WE HAVE ROOM, USE IT              00010600
* FIRST WRAP UP CURRENT PAGES AND THEN CREATE AND INITIALIZE NEW PAGES  00010700
NEWPAGES TM    SWITCH,X'09'        IF NOT STARTING FOOTNOTE             00010800
         BNO   NNEWFOOT            THEN DONT NEED CURRENT PAGE INFO     00010900
         STH   5,SAVEL+4           ROOM LEFT IN ORDERS PAGE             00011000
         STH   6,SAVEL+6           ROOM LEFT IN DATA PAGE               00011100
         MVC   SAVEL(4),BLOCK+4    PAGE NAME                            00011200
NNEWFOOT LR    R2,R3                                                    00011300
         BCTR  R2,0                FIND LAST ORDER                      00011400
         MVC   BYTE2+1(1),0(R2)    AND                                  00011500
         TR    BYTE2+1(1),TRLCODE  FIND ITS LENGTH - 1                  00011600
         SH    R2,BYTE2            POINT AT ITS BEGINNING               00011700
         OI    0(R2),X'80'         SET HIGH ORDER BIT OF OP CODE        00011800
         LM    R1,R2,BLOCK+12      GET SECTION BEGINNINGS               00011900
         SR    R3,R1               *                                    00012000
         ST    R3,4(R1)            *                                    00012100
         SR    R4,R2               *                                    00012200
         ST    R4,4(R2)            * FILL IN LENGTHS                    00012300
         SH    R4,=H'12'           *                                    00012400
         ST    R4,12(R2)           * PAGES NOW COMPLETE                 00012500
         TM    SWITCH+1,X'08'      IF NO LABEL TO INSERT IN LABTABLE    00012600
         BZ    TSHUT               THEN BRANCH AROUND INSERTION ROUTINE 00012700
         LA    R1,12               INCREMENT TO LABEL TABLE             00012800
         CALL  GETTAB              MAKE SURE THERES ROOM & POINT TO IT  00012900
         L     R3,0(R1)            LENGTH                               00013000
         LA    R2,12(R3)           INCREMENT                            00013100
         ST    R2,0(R1)            & STORE BACK                         00013200
         AR    R3,R1               ROOM FOR NEW LABEL                   00013300
         LR    R2,R3               IMAGINARY HICORE ENTRY               00013400
         SH    R1,=H'8'            IMAGINARY LOCORE ENTRY               00013500
* WHENEVER CONTROL PASSES TO BISECTAB, R1 POINTS TO LOCORE LABEL,       00013600
* AND R2 TO HICORE LABEL OF INTERVAL TO BE BISECTED.                    00013700
BISECTAB LR    R5,R2                                                    00013800
         SR    R5,R1               FIND LENGTH OF INTERVAL              00013900
         SR    R4,R4               FOR DIVDIE                           00014000
         D     R4,=F'24'           NUMBER OF ENTRIES IN HALF INTERVAL   00014100
         LTR   R5,R5               IF TOLERANCE MET                     00014200
         BE    BISECTED            THEN BRANCH OUT                      00014300
         MH    R5,=H'12'           CONVERT ENTRIES TO BYTES             00014400
         AR    R5,R1               MIDDLE ENTRY                         00014500
         CLC   LABSAVE,0(R5)       COMPARE LABELS                       00014600
         BL    LOCORE              TOWARDS BEGIN OF ALPHABET            00014700
HICORE   LR    R1,R5               LOCORE END IS MIDDLE                 00014800
         B     BISECTAB            REITERATE                            00014900
LOCORE   LR    R2,R5               HICORE END IS MIDDLE                 00015000
         B     BISECTAB            REITERATE                            00015100
BISECTED CR    R2,R3               IF AVAILABLE SPACE THE RIGHT SPACE   00015200
         BE    PUTINLAB            THEN PUT LABEL IN IT                 00015300
         SH    R3,=H'12'           ELSE MAKE IT ONE SPACE EARLIER       00015400
         MVC   12(12,R3),0(R3)     LIKE SO                              00015500
         B     BISECTED            AND TRY AGAIN                        00015600
PUTINLAB MVC   0(6,R2),LABSAVE     PUT LABEL IN TABLE                   00015700
         MVC   8(4,R2),BLOCK+4     AND ASSOCIATE WITH PAGE NAME         00015800
TSHUT    CLI   SWITCH,X'02'        TEST FOR SHUTDOWN FLAG               00015900
         BE    SHUTDOWN            LAST PAGES HAVE BEEN COMPLETED       00016000
* NEW PAGES COME EMPTY EXCEPT FOR A SINGLE CHARACTER STRING             00016100
NEWPAIR  TM    SWITCH+1,X'28'      IF FOOTNOTE JUST ENDED               00016200
         BM    OLDPAGE             RESTORE OLD MAIN AREA PAGE           00016300
         BO    OLDDPAGE            RESTORE CURRENT MAIN AREA PAGE       00016400
         CALL  CREATEID            ASK FOR NEW PAGE PAIR                00016500
         L     R1,=V(VFADD)                                             00016600
         L     R1,0(R1)            R1 POINTS AT VF                      00016700
         A     R1,0(R1)                                                 00016800
         SH    R1,=H'4'            R1 POINTS AT NEW VF ENTRY            00016900
         MVC   BLOCK+5(3),1(R1)    KEEP IT FOR GETITEM                  00017000
         MVC   0(1,R1),SWITCH      * SET FLAGS IN VF ENTRY              00017100
         NI    0(R1),X'09'         *                                    00017200
         MVC   BLOCK+8(4),INCR     INCREMENTS TO PAGE SIZES             00017300
         L     R6,PAGESIZE         *                                    00017400
         SH    R6,=H'16'           * FIRST 16 BYTES ONLY NOT AVAILABLE  00017500
         LA    R5,4(R6)            * -- 12 BYTES IN ORDERS PAGE         00017600
         B     READIN              GO GET PAGES                         00017700
OLDDPAGE LM    R5,R6,SAVEM         RESTORE VACANCY LENGTHS              00017800
         STH   R5,BLOCK+8          INCREMENT TO ORDERS PAGE             00017900
         STH   R6,BLOCK+10         INCREMENT TO DATA PAGE               00018000
         B     RESETOLD            TO RESET SWITCHES                    00018100
OLDPAGE  MVC   BLOCK+4(8),SAVEL    SAVED PAGENAME AND LEFTOVER SIZES    00018200
         LH    R5,SAVEL+4          ROOM LEFT ON ORDERS PAGE             00018300
         LH    R6,SAVEL+6          ROOM LEFT IN DATA PAGE               00018400
RESETOLD NI    SWITCH+1,X'D7'      RESET END FOOTNOTE, LABEL SWITCHES   00018500
         L     R2,=V(IDTABLE)      IDTABLE SHOWS IN-CORE PAGES          00018600
         CLI   0(R2),X'FF'         IF NO PAGES IN CORE,                 00018700
         BE    READIN              READ IN SELECTED PAIR                00018800
IDTLOOP  CLC   BLOCK+5(3),1(R2)    IS THIS THE PAGE WE WANT             00018900
         MVC   BLOCK+12(8),4(R2)   GET PAGE ADDRESS--USUALLY WASTED     00019000
         BE    NREADIN             NOT WASTED, ANSWER WAS YES           00019100
         TM    4(R2),X'80'         WAS THIS LAST IN-CORE PAGE PAIR      00019200
         LA    R2,12(R2)           POINT AT NEXT ENTRY IN IDTABLE       00019300
         BNO   IDTLOOP             NO, REPEAT; YES, PAGES NOT IN CORE   00019400
READIN   LA    R1,BLOCK            FOR GETITEM                          00019500
         CALL  GETITEM             BRING NEW PAGES INTO CORE & EXPAND   00019600
NREADIN  LM    R3,R4,BLOCK+12      PAGE ADDRESSES                       00019700
         A     R3,PAGESIZE         *                                    00019800
         SR    R3,R5               * CURRENT ORDERS FILL ADDRESS        00019900
         A     R4,PAGESIZE         *                                    00020000
         SR    R4,R6               * CURRENT DATA FILL ADDRESS          00020100
         LR    R2,R3                                                    00020200
         BCTR  R2,0                FIND LAST ORDER                      00020300
         MVC   BYTE2+1(1),0(R2)    AND                                  00020400
         TR    BYTE2+1(1),TRLCODE  FIND ITS LENGTH - 1                  00020500
         SH    R2,BYTE2            POINT AT ITS BEGINNING               00020600
         NI    0(R2),X'7F'         RESET LAST ORDER BIT                 00020700
         NI    SWITCH,X'F1'        RESET NEW PAGE, AREA INDICATORS      00020800
         B     ORDERS              RETEST & RECOMPUTE VACANCY LENGTHS   00020900
ORDERM   EX    R8,MOVEORDR         MOVE IN ORDER                        00021000
         TRT   0(1,R3),TRDCODE     DOES ORDER NEED DISP FILLED IN       00021100
         BE    NDISP               IF NOT, THEN BRANCH AROUND           00021200
         CLI   0(R3),X'46'         *                                    00021300
         BE    NDISP               *                                    00021400
         LR    R2,R4                                                    00021500
         S     R2,BLOCK+16         COMPUTE DISPLACEMENT                 00021600
         SH    R2,=H'12'           RELATIVE TO FIRST SPACE AT PAGE + 12 00021700
         STH   R2,4(R3)            AND PUT IT IN ORDER                  00021800
NDISP    LA    R3,1(R8,R3)         INCREMENT ORDERS PTR                 00021900
         BR    R10                                                      00022000
DATA     BCTR  R6,0                *                                    00022100
         SR    R6,R8               AMOUNT OF ROOM LEFT IN DATA PAGE     00022200
         BL    ERROR               IF NONE, SOMETHING WENT VERY WRONG   00022300
         CH    R6,=H'160'          IF LT 160 BYTES, SET FLAG TO GET NEW 00022400
         BNL   *+8                 PAGES AT NEXT ORDER; ELSEBRANCH      00022500
         OI    SWITCH,X'84'        NEW ORDER AND NEW PAGES SWITCHES     00022600
         LR    R2,R3                                                    00022700
         SH    R2,=H'6'            R2 POINTS AT CURRENT LENGTH IN ORDER 00022800
         EX    R8,MOVEDATA         MOVE IN DATA                         00022900
         LA    R4,1(R8,R4)         INCREMENT DATA POINTER               00023000
         AH    R8,0(R2)            ADD OLD LENGTH                       00023100
         LA    R8,1(R8)            COMPENSATE FOR RECEIVING LENGTH-1    00023200
         STH   R8,0(R2)            REPLACE LENGTH                       00023300
         BR    R10                                                      00023400
         EJECT                                                          00023500
         BCTR  R11,0               POINT AT FIRST CHAR                  00023600
SCANRTN  SR    R1,R1                                                    00023700
         LR    R2,R1                                                    00023800
         TRT   0(256,R11),TRTDELIM FIND DELIMITER                       00023900
SPECRET  STM   R1,R2,SAVE                                               00024000
         TM    SWITCH+1,X'80'      IF SWITCH SET,                       00024100
         BO    NOMOVE-4            STRING IS TO BE IGNORED              00024200
         SR    R1,R11                                                   00024300
         BE    NOMOVE              IF NO TEXT, DONT CALL DATA MOVE      00024400
         TM    SWITCH,X'80'        IF SWITCH IS SET, NEED A             00024500
         BZ    NOORDER             NEW CHARACTER STRING ORDER,          00024600
         TM    SWITCH,X'70'        IF ANY SET,                          00024700
         BNZ   NOORDER             DONT INTERRUPT                       00024800
         NI    SWITCH,X'7F'        BUT NOT AGAIN UNTIL NEXT NON CHR STR 00024900
         LA    R7,STANDORD         * MOVE IT IN                         00025000
         LA    R8,7                *                                    00025100
         BAL   R10,ORDERS          *                                    00025200
NOORDER  LR    R7,R11              * AND MOVE IN DATA                   00025300
         L     R8,SAVE             *                                    00025400
         SR    R8,R11              *                                    00025500
         BCTR  R8,0                *                                    00025600
         BAL   R10,DATA            *                                    00025700
         L     R11,SAVE            *                                    00025800
NOMOVE   C     R11,=A(INAREA+80)   IF MORE THAN 80 CHARACTERS           00025900
         BL    NOREAD              LEFT, THEN DONT READ CARD            00026000
         BAL   R7,READ             READ CARD                            00026100
NOREAD   L     R1,SAVE+4           BRANCH TABLE FOR                     00026200
         LA    R11,1(R11)          TRT DETECT                           00026300
         SH    R1,=H'20'           IF NOT SPEC CODE                     00026400
         BNH   BT                  TAKE BRANCH                          00026500
         TM    SWITCH+1,X'80'      IF IGNORE IS SET                     00026600
         BO    SCANRTN             THEN IGNORE                          00026700
BT       B     *+20(R1)            * BRANCH TABLE                       00026800
         B     SCANRTN-2           ONLY TEXT WAS LEFT                   00026900
         B     CLEANUP             END OF DATA                          00027000
         B     LABELER             LABEL IN INPUT STREAM                00027100
         B     PLUSHIT             TRT HIT PLUS SIGN                    00027200
         B     MINUSHIT            TRT HIT MINUS SIGN                   00027300
         B     STARHIT             SINGLE CAP                           00027400
         B     ATHIT               BEGIN OR END CAPS                    00027500
         B     DOLARHIT            BEGIN OR END UNDERSCORE              00027600
         B     SLASHHIT            SPECIAL CHARACTER                    00027700
* PERIOD AND SEMICOLON CONDITIONAL HITS FOR DEFINED CODE SECOND STRING  00027800
         MVI   TRTDELIM+C'.',0     * RESET THESE SWITCHES        INSERT 00027900
         MVI   TRTDELIM+C':',0     *                                    00028000
         SR    R8,R8                                                    00028100
         LR    R7,R11                                                   00028200
         BCTR  R7,0                                                     00028300
         BAL   R10,DATA            MOVE THE PUNCTUATION IN              00028400
DEFSECST SH    R11,=H'10'          STRING TO BE INSERTED IS 10 CHARS    00028500
         MVC   0(10,R11),STRING    MOVE IN STRING                       00028600
         SR    R1,R1               FOR TRT                              00028700
         TRT   0(10,R11),TRTDELIM  FIND BEGIN AGAIN                     00028800
         BNE   *+8                 BRANCH IF FCN BYTE FOUND             00028900
         LA    R1,10(R11)          ELSE RESTORE TO NEXT CHAR            00029000
         LR    R11,R1              SET R11                              00029100
         B     SCANRTN                                                  00029200
         SPACE                                                          00029300
* HITS THAT REMAIN IN LEVEL 3A                                          00029400
STARHIT  MVI   AORD+1,1            TYPE 1 FORMAT                        00029500
NORMAL   LA    R10,SCANRTN         RETURN TO SCANRTN                    00029600
         TM    SWITCH,X'40'        IF STRING INTACT IS SET              00029700
         BOR   R10                 ABANDON THIS ORDER                   00029800
ONEINCR  OI    SWITCH,X'80'        SET NEW CHAR STR ORDER               00029900
         LA    R7,AORD             ADDRESS OF ORDER                     00030000
         LA    R8,3                LENGTH OF ORDER - 1                  00030100
         B     ORDERS              AFTER MOVE IN ORDER                  00030200
ATHIT    MVI   AORD+1,2            TYPE 2 FORMAT                        00030300
         CLI   0(R11),C'@'         IF NO SECOND @ --                    00030400
         BNE   NORMAL                                                   00030500
         MVI   AORD+1,4            TYPE 4 FORMAT                        00030600
TWOINCR  LA    R11,1(R11)          AND EXTRA CHAR SCANNED               00030700
         B     NORMAL              IF SECOND @                          00030800
DOLARHIT MVI   AORD+1,3            TYPE 3 FORMAT                        00030900
         CLI   0(R11),C'$'         IF NO SECOND $ --                    00031000
         BNE   NORMAL                                                   00031100
         MVI   AORD+1,5            TYPE 5 FORMAT AND EXTRA              00031200
         B     TWOINCR             CHAR SCANNED IF SECOND $             00031300
SLASHHIT CLI   0(R11),C'/'         IF WE HAVE TWO SLASHES               00031400
         BE    DSLASH              GET SPECIAL CHAR ORDER               00031500
         CLI   0(R11),C'0'         IF WE HAVE NUMBER                    00031600
         BNL   SUPERSC             IT IS SUPERSCRIPT                    00031700
         LA    R1,SSTABLE          POINT TO TABLE                       00031800
         BAL   R7,SEARCH           AND FIND APPROPRIATE ENTRY           00031900
         IC    R2,15(R1)           TYPE IS MULTIPLE OF 4                00032000
         MVC   AORD+1(1),14(R1)    FOR SOME TYPES, HAVE FMT NUMBER      00032100
         B     *+4(R2)             * BRANCH TABLE                       00032200
         B     PRIMEC              *  CHAR HAS LITERAL REPR IN HYP DS   00032300
         B     NORMAL              *  NEED ONLY TO MOVE IN ORDER        00032400
         B     CSPEC               *  NEEDS CODE 48, FURTHER SPEC       00032500
PRIMEC   BCTR  R11,0                                                    00032600
         MVC   0(1,R11),14(R1)                                          00032700
         LA    R1,1(R11)                                                00032800
         LA    R2,4                SPECIFY BROKEN STR                   00032900
         B     SPECRET             ORDINARY STR HANDLER                 00033000
SUPERSC  MVI   AORD+1,43           CODE FOR SUPERSCRIPTS                00033100
         BAL   R7,GETNUM           FIND WHAT NUMBER IT IS               00033200
         STC   R1,AORD+2           AND PUT IN SHORT FMT                 00033300
         B     NORMAL              MOVE IN FMT WORD                     00033400
CSPEC    MVC   AORD+2(1),14(R1)    QUALIFY SPECIAL CHAR                 00033500
         MVI   AORD+1,49           CODE FOR SPECIAL CHAR                00033600
         B     NORMAL              MOVE IN FMT WORD                     00033700
DSLASH   LA    R11,1(R11)          DONE LOOKING AT SECOND SLASH         00033800
         LA    R1,DSTABLE          POINT TO TABLE                       00033900
         BAL   R7,SEARCH           AND FIND ENTRY                       00034000
         MVC   AORD+2(1),15(R1)    QUALIFY SPECIAL CHAR                 00034100
         B     CSPEC+6             AND USE EXISTING CODE                00034200
         EJECT                                                          00034300
* ROUTINE COMMON TO BEGINNING LEVELS 3B AND 3C                          00034400
SECSTCHK TM    SWITCH,X'30'        IF BOTH + AND - ACTIVE,              00034500
         BZ    SCANRTN             (LEAVE IF NEITHER)                   00034600
         BM    HTEST-4             THEN ERROR                           00034700
         BCTR  R11,0               TO PRESERVE CULPRIT                  00034800
         B     ERROR               RECORD ERROR                         00034900
         NI    SWITCH,X'BF'        RESET STRING INTACT SWITCH           00035000
HTEST    NI    SWITCH+1,X'7F'      RESET STRING IGNORE SWITCH           00035100
         TM    SWITCH+1,X'40'      IF 'H' SWITCH OF DEFINED CODE OFF    00035200
         BZR   R7                  THEN RETURN                          00035300
         NI    SWITCH+1,X'BF'      ELSE RESET IT                        00035400
         BCTR  R11,0               DECREMENT R11                        00035500
         B     DEFSECST            AND INSERT SECOND STRING             00035600
         SPACE 2                                                        00035700
*****                                                                   00035800
* TRANSFER HERE ON SCANNING '+', TO ENTER OR LEAVE LEVEL 3B             00035900
*****                                                                   00036000
PLUSHIT  XI    SWITCH,X'20'        INVERT LEVEL 3B SWITCH               00036100
         BAL   R7,SECSTCHK         ALTER CODE, END OF DEFINED STRING    00036200
         BALR  R10,0               WHERE TO GO WHEN DONE (DEFAULT)      00036300
TABAD    C     R11,=A(INAREA+80)                                        00036400
         BL    *+8                                                      00036500
         BAL   R7,READ                                                  00036600
         LA    R1,PTABLE           TABLE OF ALTER CODES                 00036700
         BAL   R7,SEARCH           FIND ENTRY                           00036800
         IC    R2,15(R1)           TYPE IS MULTIPLE OF 4                00036900